!-Generator IDFEditor 1.51
!-Option SortedOrder

!-NOTE: All comments with '!-' are ignored by the IDFEditor and are generated automatically.
!-      Use '!' comments if they need to be retained when using the IDFEditor.


!-   ===========  ALL OBJECTS IN CLASS: SCHEDULETYPELIMITS ===========

ScheduleTypeLimits,
    NoneNumber,              !- Name
    0,                       !- Lower Limit Value
    0.02,                    !- Upper Limit Value
    Continuous,              !- Numeric Type
    Availability;            !- Unit Type

ScheduleTypeLimits,
    AnyNumber,               !- Name
    ,                        !- Lower Limit Value
    ,                        !- Upper Limit Value
    Continuous,              !- Numeric Type
    Availability;            !- Unit Type

ScheduleTypeLimits,
    On/Off,                  !- Name
    0.0,                     !- Lower Limit Value
    1.0,                     !- Upper Limit Value
    Discrete;                !- Numeric Type

ScheduleTypeLimits,
    ISR_Temperature,         !- Name
    -50,                     !- Lower Limit Value
    100,                     !- Upper Limit Value
    Continuous,              !- Numeric Type
    Temperature;             !- Unit Type

ScheduleTypeLimits,
    Temperature,             !- Name
    ,                        !- Lower Limit Value
    ,                        !- Upper Limit Value
    Continuous,              !- Numeric Type
    temperature;             !- Unit Type

ScheduleTypeLimits,
    Schedule Type Limits 1,  !- Name
    0,                       !- Lower Limit Value
    1,                       !- Upper Limit Value
    Continuous;              !- Numeric Type

ScheduleTypeLimits,
    Schedule Type Limits 3,  !- Name
    0,                       !- Lower Limit Value
    1,                       !- Upper Limit Value
    CONTINUOUS;              !- Numeric Type

ScheduleTypeLimits,
    Schedule Type Limits 4,  !- Name
    0,                       !- Lower Limit Value
    ,                        !- Upper Limit Value
    Continuous,              !- Numeric Type
    activitylevel;           !- Unit Type

ScheduleTypeLimits,
    Schedule Type Limits 5,  !- Name
    ,                        !- Lower Limit Value
    ,                        !- Upper Limit Value
    Continuous,              !- Numeric Type
    temperature;             !- Unit Type

ScheduleTypeLimits,
    Schedule Type Limits 2,  !- Name
    0,                       !- Lower Limit Value
    1,                       !- Upper Limit Value
    Discrete;                !- Numeric Type


!-   ===========  ALL OBJECTS IN CLASS: SCHEDULE:DAY:INTERVAL ===========

Schedule:Day:Interval,
    ISR_CoolingSetpointDay,  !- Name
    ISR_Temperature,         !- Schedule Type Limits Name
    No,                      !- Interpolate to Timestep
    24:00,                   !- Time 1 {hh:mm}
    24;                      !- Value Until Time 1

Schedule:Day:Interval,
    ISR_HeatingSetpointDay,  !- Name
    ISR_Temperature,         !- Schedule Type Limits Name
    No,                      !- Interpolate to Timestep
    24:00,                   !- Time 1 {hh:mm}
    20;                      !- Value Until Time 1

Schedule:Day:Interval,
    IS_ResidentialOccupancy_5282 Day Schedule - Sun,  !- Name
    AnyNumber,               !- Schedule Type Limits Name
    No,                      !- Interpolate to Timestep
    8:00,                    !- Time 1 {hh:mm}
    1.0,                     !- Value Until Time 1
    17:00,                   !- Time 2 {hh:mm}
    0.0,                     !- Value Until Time 2
    24:00,                   !- Time 3 {hh:mm}
    1.0;                     !- Value Until Time 3

Schedule:Day:Interval,
    IS_ResidentialOccupancy_5282 Day Schedule - Fri,  !- Name
    AnyNumber,               !- Schedule Type Limits Name
    No,                      !- Interpolate to Timestep
    8:00,                    !- Time 1 {hh:mm}
    1.0,                     !- Value Until Time 1
    14:00,                   !- Time 2 {hh:mm}
    0.0,                     !- Value Until Time 2
    24:00,                   !- Time 3 {hh:mm}
    1.0;                     !- Value Until Time 3

Schedule:Day:Interval,
    IS_ResidentialOccupancy_5282 Day Schedule - Sat,  !- Name
    AnyNumber,               !- Schedule Type Limits Name
    No,                      !- Interpolate to Timestep
    24:00,                   !- Time 1 {hh:mm}
    1.0;                     !- Value Until Time 1

Schedule:Day:Interval,
    IS_Res_People_ACT Day Schedule - Sun,  !- Name
    AnyNumber,               !- Schedule Type Limits Name
    No,                      !- Interpolate to Timestep
    7:00,                    !- Time 1 {hh:mm}
    72.0,                    !- Value Until Time 1
    24:00,                   !- Time 2 {hh:mm}
    126.0;                   !- Value Until Time 2

Schedule:Day:Interval,
    IS_RES_Equipment Day Schedule - Sun,  !- Name
    AnyNumber,               !- Schedule Type Limits Name
    No,                      !- Interpolate to Timestep
    16:00,                   !- Time 1 {hh:mm}
    0.11,                    !- Value Until Time 1
    24:00,                   !- Time 2 {hh:mm}
    1.0;                     !- Value Until Time 2

Schedule:Day:Interval,
    IS_Res_Infiltration Day Schedule - Constant,  !- Name
    AnyNumber,               !- Schedule Type Limits Name
    No,                      !- Interpolate to Timestep
    24:00,                   !- Time 1 {hh:mm}
    1.0;                     !- Value Until Time 1

Schedule:Day:Interval,
    IS_Res_Always_off Day Schedule - Constant,  !- Name
    AnyNumber,               !- Schedule Type Limits Name
    No,                      !- Interpolate to Timestep
    24:00,                   !- Time 1 {hh:mm}
    0.0;                     !- Value Until Time 1

Schedule:Day:Interval,
    IS_Res_Always_on Day Schedule - Constant,  !- Name
    AnyNumber,               !- Schedule Type Limits Name
    No,                      !- Interpolate to Timestep
    24:00,                   !- Time 1 {hh:mm}
    1.0;                     !- Value Until Time 1

Schedule:Day:Interval,
    IS_Res_Lights_NE_E Day Schedule - Sun,  !- Name
    On/Off,                  !- Schedule Type Limits Name
    No,                      !- Interpolate to Timestep
    7:00,                    !- Time 1 {hh:mm}
    0.0,                     !- Value Until Time 1
    8:00,                    !- Time 2 {hh:mm}
    1.0,                     !- Value Until Time 2
    17:00,                   !- Time 3 {hh:mm}
    0.0,                     !- Value Until Time 3
    24:00,                   !- Time 4 {hh:mm}
    1.0;                     !- Value Until Time 4

Schedule:Day:Interval,
    IS_Res_Blinds_Winter Day Schedule - Sun,  !- Name
    On/Off,                  !- Schedule Type Limits Name
    No,                      !- Interpolate to Timestep
    24:00,                   !- Time 1 {hh:mm}
    0.0;                     !- Value Until Time 1

Schedule:Day:Interval,
    IS_Res_Blinds_Summer Day Schedule - Sun,  !- Name
    On/Off,                  !- Schedule Type Limits Name
    No,                      !- Interpolate to Timestep
    24:00,                   !- Time 1 {hh:mm}
    1.0;                     !- Value Until Time 1

Schedule:Day:Interval,
    IS_RES_HEATING_SETPOINT DAY SCHEDULE - SUNSETBK 15.0 SETPT 20.0,  !- Name
    Schedule Type Limits 5,  !- Schedule Type Limits Name
    No,                      !- Interpolate to Timestep
    09:00,                   !- Time 1 {hh:mm}
    15,                      !- Value Until Time 1
    18:00,                   !- Time 2 {hh:mm}
    20,                      !- Value Until Time 2
    24:00,                   !- Time 3 {hh:mm}
    15;                      !- Value Until Time 3

Schedule:Day:Interval,
    IS_RES_HEATING_SETPOINT DAY SCHEDULE - FRISETPT 20.0,  !- Name
    Schedule Type Limits 5,  !- Schedule Type Limits Name
    No,                      !- Interpolate to Timestep
    24:00,                   !- Time 1 {hh:mm}
    20;                      !- Value Until Time 1

Schedule:Day:Interval,
    IS_RES_COOLING_SETPOINT DAY SCHEDULE - SUNSETBK 35.0 SETPT 24.0,  !- Name
    Schedule Type Limits 5,  !- Schedule Type Limits Name
    No,                      !- Interpolate to Timestep
    09:00,                   !- Time 1 {hh:mm}
    35,                      !- Value Until Time 1
    17:00,                   !- Time 2 {hh:mm}
    24,                      !- Value Until Time 2
    24:00,                   !- Time 3 {hh:mm}
    35;                      !- Value Until Time 3

Schedule:Day:Interval,
    IS_RES_COOLING_SETPOINT DAY SCHEDULE - SATSETPT 24.0,  !- Name
    Schedule Type Limits 5,  !- Schedule Type Limits Name
    No,                      !- Interpolate to Timestep
    24:00,                   !- Time 1 {hh:mm}
    24;                      !- Value Until Time 1

Schedule:Day:Interval,
    IS_RES_Occupancy Day Schedule - Sun,  !- Name
    Schedule Type Limits 2,  !- Schedule Type Limits Name
    No,                      !- Interpolate to Timestep
    08:00,                   !- Time 1 {hh:mm}
    1,                       !- Value Until Time 1
    16:00,                   !- Time 2 {hh:mm}
    0,                       !- Value Until Time 2
    24:00,                   !- Time 3 {hh:mm}
    1;                       !- Value Until Time 3

Schedule:Day:Interval,
    IS_RES_Occupancy Day Schedule - Sat,  !- Name
    Schedule Type Limits 2,  !- Schedule Type Limits Name
    No,                      !- Interpolate to Timestep
    24:00,                   !- Time 1 {hh:mm}
    1;                       !- Value Until Time 1

Schedule:Day:Interval,
    Always On Default Schedule,  !- Name
    Schedule Type Limits 2,  !- Schedule Type Limits Name
    No,                      !- Interpolate to Timestep
    24:00,                   !- Time 1 {hh:mm}
    1;                       !- Value Until Time 1

Schedule:Day:Interval,
    Always On Summer Design Day,  !- Name
    Schedule Type Limits 2,  !- Schedule Type Limits Name
    No,                      !- Interpolate to Timestep
    24:00,                   !- Time 1 {hh:mm}
    1;                       !- Value Until Time 1

Schedule:Day:Interval,
    Always On Winter Design Day,  !- Name
    Schedule Type Limits 2,  !- Schedule Type Limits Name
    No,                      !- Interpolate to Timestep
    24:00,                   !- Time 1 {hh:mm}
    1;                       !- Value Until Time 1

Schedule:Day:Interval,
    IS_Res_Always_off Day Schedule - Constant,  !- Name
    Schedule Type Limits 1,  !- Schedule Type Limits Name
    No,                      !- Interpolate to Timestep
    24:00,                   !- Time 1 {hh:mm}
    0;                       !- Value Until Time 1

Schedule:Day:Interval,
    IS_RES_Equipment Day Schedule - Sun,  !- Name
    Schedule Type Limits 3,  !- Schedule Type Limits Name
    No,                      !- Interpolate to Timestep
    16:00,                   !- Time 1 {hh:mm}
    0.11,                    !- Value Until Time 1
    24:00,                   !- Time 2 {hh:mm}
    1;                       !- Value Until Time 2

Schedule:Day:Interval,
    IS_Res_Infiltration Day Schedule - Constant,  !- Name
    Schedule Type Limits 1,  !- Schedule Type Limits Name
    No,                      !- Interpolate to Timestep
    24:00,                   !- Time 1 {hh:mm}
    1;                       !- Value Until Time 1

Schedule:Day:Interval,
    IS_Res_Lights_NE_E Day Schedule - Sun,  !- Name
    Schedule Type Limits 2,  !- Schedule Type Limits Name
    No,                      !- Interpolate to Timestep
    07:00,                   !- Time 1 {hh:mm}
    0,                       !- Value Until Time 1
    08:00,                   !- Time 2 {hh:mm}
    1,                       !- Value Until Time 2
    17:00,                   !- Time 3 {hh:mm}
    0,                       !- Value Until Time 3
    24:00,                   !- Time 4 {hh:mm}
    1;                       !- Value Until Time 4

Schedule:Day:Interval,
    IS_Res_People_ACT Day Schedule - Sun,  !- Name
    Schedule Type Limits 4,  !- Schedule Type Limits Name
    No,                      !- Interpolate to Timestep
    07:00,                   !- Time 1 {hh:mm}
    72,                      !- Value Until Time 1
    24:00,                   !- Time 2 {hh:mm}
    126;                     !- Value Until Time 2


!-   ===========  ALL OBJECTS IN CLASS: SCHEDULE:WEEK:DAILY ===========

Schedule:Week:Daily,
    CoolingSetpointWeek,     !- Name
    ISR_CoolingSetpointDay,  !- Sunday Schedule:Day Name
    ISR_CoolingSetpointDay,  !- Monday Schedule:Day Name
    ISR_CoolingSetpointDay,  !- Tuesday Schedule:Day Name
    ISR_CoolingSetpointDay,  !- Wednesday Schedule:Day Name
    ISR_CoolingSetpointDay,  !- Thursday Schedule:Day Name
    ISR_CoolingSetpointDay,  !- Friday Schedule:Day Name
    ISR_CoolingSetpointDay,  !- Saturday Schedule:Day Name
    ISR_CoolingSetpointDay,  !- Holiday Schedule:Day Name
    ISR_CoolingSetpointDay,  !- SummerDesignDay Schedule:Day Name
    ISR_CoolingSetpointDay,  !- WinterDesignDay Schedule:Day Name
    ISR_CoolingSetpointDay,  !- CustomDay1 Schedule:Day Name
    ISR_CoolingSetpointDay;  !- CustomDay2 Schedule:Day Name

Schedule:Week:Daily,
    HeatingSetpointWeek,     !- Name
    ISR_HeatingSetpointDay,  !- Sunday Schedule:Day Name
    ISR_HeatingSetpointDay,  !- Monday Schedule:Day Name
    ISR_HeatingSetpointDay,  !- Tuesday Schedule:Day Name
    ISR_HeatingSetpointDay,  !- Wednesday Schedule:Day Name
    ISR_HeatingSetpointDay,  !- Thursday Schedule:Day Name
    ISR_HeatingSetpointDay,  !- Friday Schedule:Day Name
    ISR_HeatingSetpointDay,  !- Saturday Schedule:Day Name
    ISR_HeatingSetpointDay,  !- Holiday Schedule:Day Name
    ISR_HeatingSetpointDay,  !- SummerDesignDay Schedule:Day Name
    ISR_HeatingSetpointDay,  !- WinterDesignDay Schedule:Day Name
    ISR_HeatingSetpointDay,  !- CustomDay1 Schedule:Day Name
    ISR_HeatingSetpointDay;  !- CustomDay2 Schedule:Day Name

Schedule:Week:Daily,
    IS_ResidentialOccupancy_5282 Week Schedule,  !- Name
    IS_ResidentialOccupancy_5282 Day Schedule - Sun,  !- Sunday Schedule:Day Name
    IS_ResidentialOccupancy_5282 Day Schedule - Sun,  !- Monday Schedule:Day Name
    IS_ResidentialOccupancy_5282 Day Schedule - Sun,  !- Tuesday Schedule:Day Name
    IS_ResidentialOccupancy_5282 Day Schedule - Sun,  !- Wednesday Schedule:Day Name
    IS_ResidentialOccupancy_5282 Day Schedule - Sun,  !- Thursday Schedule:Day Name
    IS_ResidentialOccupancy_5282 Day Schedule - Fri,  !- Friday Schedule:Day Name
    IS_ResidentialOccupancy_5282 Day Schedule - Sat,  !- Saturday Schedule:Day Name
    IS_ResidentialOccupancy_5282 Day Schedule - Sat,  !- Holiday Schedule:Day Name
    IS_ResidentialOccupancy_5282 Day Schedule - Fri,  !- SummerDesignDay Schedule:Day Name
    IS_ResidentialOccupancy_5282 Day Schedule - Sun,  !- WinterDesignDay Schedule:Day Name
    IS_ResidentialOccupancy_5282 Day Schedule - Sun,  !- CustomDay1 Schedule:Day Name
    IS_ResidentialOccupancy_5282 Day Schedule - Sun;  !- CustomDay2 Schedule:Day Name

Schedule:Week:Daily,
    IS_Res_People_ACT Week Schedule,  !- Name
    IS_Res_People_ACT Day Schedule - Sun,  !- Sunday Schedule:Day Name
    IS_Res_People_ACT Day Schedule - Sun,  !- Monday Schedule:Day Name
    IS_Res_People_ACT Day Schedule - Sun,  !- Tuesday Schedule:Day Name
    IS_Res_People_ACT Day Schedule - Sun,  !- Wednesday Schedule:Day Name
    IS_Res_People_ACT Day Schedule - Sun,  !- Thursday Schedule:Day Name
    IS_Res_People_ACT Day Schedule - Sun,  !- Friday Schedule:Day Name
    IS_Res_People_ACT Day Schedule - Sun,  !- Saturday Schedule:Day Name
    IS_Res_People_ACT Day Schedule - Sun,  !- Holiday Schedule:Day Name
    IS_Res_People_ACT Day Schedule - Sun,  !- SummerDesignDay Schedule:Day Name
    IS_Res_People_ACT Day Schedule - Sun,  !- WinterDesignDay Schedule:Day Name
    IS_Res_People_ACT Day Schedule - Sun,  !- CustomDay1 Schedule:Day Name
    IS_Res_People_ACT Day Schedule - Sun;  !- CustomDay2 Schedule:Day Name

Schedule:Week:Daily,
    IS_RES_Equipment Week Schedule,  !- Name
    IS_RES_Equipment Day Schedule - Sun,  !- Sunday Schedule:Day Name
    IS_RES_Equipment Day Schedule - Sun,  !- Monday Schedule:Day Name
    IS_RES_Equipment Day Schedule - Sun,  !- Tuesday Schedule:Day Name
    IS_RES_Equipment Day Schedule - Sun,  !- Wednesday Schedule:Day Name
    IS_RES_Equipment Day Schedule - Sun,  !- Thursday Schedule:Day Name
    IS_RES_Equipment Day Schedule - Sun,  !- Friday Schedule:Day Name
    IS_RES_Equipment Day Schedule - Sun,  !- Saturday Schedule:Day Name
    IS_RES_Equipment Day Schedule - Sun,  !- Holiday Schedule:Day Name
    IS_RES_Equipment Day Schedule - Sun,  !- SummerDesignDay Schedule:Day Name
    IS_RES_Equipment Day Schedule - Sun,  !- WinterDesignDay Schedule:Day Name
    IS_RES_Equipment Day Schedule - Sun,  !- CustomDay1 Schedule:Day Name
    IS_RES_Equipment Day Schedule - Sun;  !- CustomDay2 Schedule:Day Name

Schedule:Week:Daily,
    IS_Res_Infiltration Week Schedule,  !- Name
    IS_Res_Infiltration Day Schedule - Constant,  !- Sunday Schedule:Day Name
    IS_Res_Infiltration Day Schedule - Constant,  !- Monday Schedule:Day Name
    IS_Res_Infiltration Day Schedule - Constant,  !- Tuesday Schedule:Day Name
    IS_Res_Infiltration Day Schedule - Constant,  !- Wednesday Schedule:Day Name
    IS_Res_Infiltration Day Schedule - Constant,  !- Thursday Schedule:Day Name
    IS_Res_Infiltration Day Schedule - Constant,  !- Friday Schedule:Day Name
    IS_Res_Infiltration Day Schedule - Constant,  !- Saturday Schedule:Day Name
    IS_Res_Infiltration Day Schedule - Constant,  !- Holiday Schedule:Day Name
    IS_Res_Infiltration Day Schedule - Constant,  !- SummerDesignDay Schedule:Day Name
    IS_Res_Infiltration Day Schedule - Constant,  !- WinterDesignDay Schedule:Day Name
    IS_Res_Infiltration Day Schedule - Constant,  !- CustomDay1 Schedule:Day Name
    IS_Res_Infiltration Day Schedule - Constant;  !- CustomDay2 Schedule:Day Name

Schedule:Week:Daily,
    IS_Res_Always_off Week Schedule,  !- Name
    IS_Res_Always_off Day Schedule - Constant,  !- Sunday Schedule:Day Name
    IS_Res_Always_off Day Schedule - Constant,  !- Monday Schedule:Day Name
    IS_Res_Always_off Day Schedule - Constant,  !- Tuesday Schedule:Day Name
    IS_Res_Always_off Day Schedule - Constant,  !- Wednesday Schedule:Day Name
    IS_Res_Always_off Day Schedule - Constant,  !- Thursday Schedule:Day Name
    IS_Res_Always_off Day Schedule - Constant,  !- Friday Schedule:Day Name
    IS_Res_Always_off Day Schedule - Constant,  !- Saturday Schedule:Day Name
    IS_Res_Always_off Day Schedule - Constant,  !- Holiday Schedule:Day Name
    IS_Res_Always_off Day Schedule - Constant,  !- SummerDesignDay Schedule:Day Name
    IS_Res_Always_off Day Schedule - Constant,  !- WinterDesignDay Schedule:Day Name
    IS_Res_Always_off Day Schedule - Constant,  !- CustomDay1 Schedule:Day Name
    IS_Res_Always_off Day Schedule - Constant;  !- CustomDay2 Schedule:Day Name

Schedule:Week:Daily,
    IS_Res_Always_on Week Schedule,  !- Name
    IS_Res_Always_on Day Schedule - Constant,  !- Sunday Schedule:Day Name
    IS_Res_Always_on Day Schedule - Constant,  !- Monday Schedule:Day Name
    IS_Res_Always_on Day Schedule - Constant,  !- Tuesday Schedule:Day Name
    IS_Res_Always_on Day Schedule - Constant,  !- Wednesday Schedule:Day Name
    IS_Res_Always_on Day Schedule - Constant,  !- Thursday Schedule:Day Name
    IS_Res_Always_on Day Schedule - Constant,  !- Friday Schedule:Day Name
    IS_Res_Always_on Day Schedule - Constant,  !- Saturday Schedule:Day Name
    IS_Res_Always_on Day Schedule - Constant,  !- Holiday Schedule:Day Name
    IS_Res_Always_on Day Schedule - Constant,  !- SummerDesignDay Schedule:Day Name
    IS_Res_Always_on Day Schedule - Constant,  !- WinterDesignDay Schedule:Day Name
    IS_Res_Always_on Day Schedule - Constant,  !- CustomDay1 Schedule:Day Name
    IS_Res_Always_on Day Schedule - Constant;  !- CustomDay2 Schedule:Day Name

Schedule:Week:Daily,
    IS_Res_Lights_NE_E Week Schedule,  !- Name
    IS_Res_Lights_NE_E Day Schedule - Sun,  !- Sunday Schedule:Day Name
    IS_Res_Lights_NE_E Day Schedule - Sun,  !- Monday Schedule:Day Name
    IS_Res_Lights_NE_E Day Schedule - Sun,  !- Tuesday Schedule:Day Name
    IS_Res_Lights_NE_E Day Schedule - Sun,  !- Wednesday Schedule:Day Name
    IS_Res_Lights_NE_E Day Schedule - Sun,  !- Thursday Schedule:Day Name
    IS_Res_Lights_NE_E Day Schedule - Sun,  !- Friday Schedule:Day Name
    IS_Res_Lights_NE_E Day Schedule - Sun,  !- Saturday Schedule:Day Name
    IS_Res_Lights_NE_E Day Schedule - Sun,  !- Holiday Schedule:Day Name
    IS_Res_Lights_NE_E Day Schedule - Sun,  !- SummerDesignDay Schedule:Day Name
    IS_Res_Lights_NE_E Day Schedule - Sun,  !- WinterDesignDay Schedule:Day Name
    IS_Res_Lights_NE_E Day Schedule - Sun,  !- CustomDay1 Schedule:Day Name
    IS_Res_Lights_NE_E Day Schedule - Sun;  !- CustomDay2 Schedule:Day Name

Schedule:Week:Daily,
    IS_Res_Blinds_Winter Week Schedule,  !- Name
    IS_Res_Blinds_Winter Day Schedule - Sun,  !- Sunday Schedule:Day Name
    IS_Res_Blinds_Winter Day Schedule - Sun,  !- Monday Schedule:Day Name
    IS_Res_Blinds_Winter Day Schedule - Sun,  !- Tuesday Schedule:Day Name
    IS_Res_Blinds_Winter Day Schedule - Sun,  !- Wednesday Schedule:Day Name
    IS_Res_Blinds_Winter Day Schedule - Sun,  !- Thursday Schedule:Day Name
    IS_Res_Blinds_Winter Day Schedule - Sun,  !- Friday Schedule:Day Name
    IS_Res_Blinds_Winter Day Schedule - Sun,  !- Saturday Schedule:Day Name
    IS_Res_Blinds_Winter Day Schedule - Sun,  !- Holiday Schedule:Day Name
    IS_Res_Blinds_Winter Day Schedule - Sun,  !- SummerDesignDay Schedule:Day Name
    IS_Res_Blinds_Winter Day Schedule - Sun,  !- WinterDesignDay Schedule:Day Name
    IS_Res_Blinds_Winter Day Schedule - Sun,  !- CustomDay1 Schedule:Day Name
    IS_Res_Blinds_Winter Day Schedule - Sun;  !- CustomDay2 Schedule:Day Name

Schedule:Week:Daily,
    IS_Res_Blinds_Summer Week Schedule,  !- Name
    IS_Res_Blinds_Summer Day Schedule - Sun,  !- Sunday Schedule:Day Name
    IS_Res_Blinds_Summer Day Schedule - Sun,  !- Monday Schedule:Day Name
    IS_Res_Blinds_Summer Day Schedule - Sun,  !- Tuesday Schedule:Day Name
    IS_Res_Blinds_Summer Day Schedule - Sun,  !- Wednesday Schedule:Day Name
    IS_Res_Blinds_Summer Day Schedule - Sun,  !- Thursday Schedule:Day Name
    IS_Res_Blinds_Summer Day Schedule - Sun,  !- Friday Schedule:Day Name
    IS_Res_Blinds_Summer Day Schedule - Sun,  !- Saturday Schedule:Day Name
    IS_Res_Blinds_Summer Day Schedule - Sun,  !- Holiday Schedule:Day Name
    IS_Res_Blinds_Summer Day Schedule - Sun,  !- SummerDesignDay Schedule:Day Name
    IS_Res_Blinds_Summer Day Schedule - Sun,  !- WinterDesignDay Schedule:Day Name
    IS_Res_Blinds_Summer Day Schedule - Sun,  !- CustomDay1 Schedule:Day Name
    IS_Res_Blinds_Summer Day Schedule - Sun;  !- CustomDay2 Schedule:Day Name

Schedule:Week:Daily,
    SETBK 15.0 SETPT 20.0  {7DECC7CC-0FF2-4C8B-B0B3-09143FC8C2FC},  !- Name
    IS_RES_HEATING_SETPOINT DAY SCHEDULE - SUNSETBK 15.0 SETPT 20.0,  !- Sunday Schedule:Day Name
    IS_RES_HEATING_SETPOINT DAY SCHEDULE - SUNSETBK 15.0 SETPT 20.0,  !- Monday Schedule:Day Name
    IS_RES_HEATING_SETPOINT DAY SCHEDULE - SUNSETBK 15.0 SETPT 20.0,  !- Tuesday Schedule:Day Name
    IS_RES_HEATING_SETPOINT DAY SCHEDULE - SUNSETBK 15.0 SETPT 20.0,  !- Wednesday Schedule:Day Name
    IS_RES_HEATING_SETPOINT DAY SCHEDULE - SUNSETBK 15.0 SETPT 20.0,  !- Thursday Schedule:Day Name
    IS_RES_HEATING_SETPOINT DAY SCHEDULE - SUNSETBK 15.0 SETPT 20.0,  !- Friday Schedule:Day Name
    IS_RES_HEATING_SETPOINT DAY SCHEDULE - FRISETPT 20.0,  !- Saturday Schedule:Day Name
    IS_RES_HEATING_SETPOINT DAY SCHEDULE - FRISETPT 20.0,  !- Holiday Schedule:Day Name
    IS_RES_HEATING_SETPOINT DAY SCHEDULE - FRISETPT 20.0,  !- SummerDesignDay Schedule:Day Name
    IS_RES_HEATING_SETPOINT DAY SCHEDULE - SUNSETBK 15.0 SETPT 20.0,  !- WinterDesignDay Schedule:Day Name
    IS_RES_HEATING_SETPOINT DAY SCHEDULE - SUNSETBK 15.0 SETPT 20.0,  !- CustomDay1 Schedule:Day Name
    IS_RES_HEATING_SETPOINT DAY SCHEDULE - SUNSETBK 15.0 SETPT 20.0;  !- CustomDay2 Schedule:Day Name

Schedule:Week:Daily,
    SETBK 35.0 SETPT 24.0  {9BDD52C1-D9E0-4BF3-8889-79A7F64EEB93},  !- Name
    IS_RES_COOLING_SETPOINT DAY SCHEDULE - SUNSETBK 35.0 SETPT 24.0,  !- Sunday Schedule:Day Name
    IS_RES_COOLING_SETPOINT DAY SCHEDULE - SUNSETBK 35.0 SETPT 24.0,  !- Monday Schedule:Day Name
    IS_RES_COOLING_SETPOINT DAY SCHEDULE - SUNSETBK 35.0 SETPT 24.0,  !- Tuesday Schedule:Day Name
    IS_RES_COOLING_SETPOINT DAY SCHEDULE - SUNSETBK 35.0 SETPT 24.0,  !- Wednesday Schedule:Day Name
    IS_RES_COOLING_SETPOINT DAY SCHEDULE - SUNSETBK 35.0 SETPT 24.0,  !- Thursday Schedule:Day Name
    IS_RES_COOLING_SETPOINT DAY SCHEDULE - SATSETPT 24.0,  !- Friday Schedule:Day Name
    IS_RES_COOLING_SETPOINT DAY SCHEDULE - SATSETPT 24.0,  !- Saturday Schedule:Day Name
    IS_RES_COOLING_SETPOINT DAY SCHEDULE - SATSETPT 24.0,  !- Holiday Schedule:Day Name
    IS_RES_COOLING_SETPOINT DAY SCHEDULE - SATSETPT 24.0,  !- SummerDesignDay Schedule:Day Name
    IS_RES_COOLING_SETPOINT DAY SCHEDULE - SUNSETBK 35.0 SETPT 24.0,  !- WinterDesignDay Schedule:Day Name
    IS_RES_COOLING_SETPOINT DAY SCHEDULE - SUNSETBK 35.0 SETPT 24.0,  !- CustomDay1 Schedule:Day Name
    IS_RES_COOLING_SETPOINT DAY SCHEDULE - SUNSETBK 35.0 SETPT 24.0;  !- CustomDay2 Schedule:Day Name

Schedule:Week:Daily,
    IS_RES_Occupancy Week Schedule,  !- Name
    IS_RES_Occupancy Day Schedule - Sun,  !- Sunday Schedule:Day Name
    IS_RES_Occupancy Day Schedule - Sun,  !- Monday Schedule:Day Name
    IS_RES_Occupancy Day Schedule - Sun,  !- Tuesday Schedule:Day Name
    IS_RES_Occupancy Day Schedule - Sun,  !- Wednesday Schedule:Day Name
    IS_RES_Occupancy Day Schedule - Sun,  !- Thursday Schedule:Day Name
    IS_RES_Occupancy Day Schedule - Sat,  !- Friday Schedule:Day Name
    IS_RES_Occupancy Day Schedule - Sat,  !- Saturday Schedule:Day Name
    IS_RES_Occupancy Day Schedule - Sat,  !- Holiday Schedule:Day Name
    IS_RES_Occupancy Day Schedule - Sat,  !- SummerDesignDay Schedule:Day Name
    IS_RES_Occupancy Day Schedule - Sun,  !- WinterDesignDay Schedule:Day Name
    IS_RES_Occupancy Day Schedule - Sun,  !- CustomDay1 Schedule:Day Name
    IS_RES_Occupancy Day Schedule - Sun;  !- CustomDay2 Schedule:Day Name

Schedule:Week:Daily,
    IS_Res_Always_off Week Schedule,  !- Name
    IS_Res_Always_off Day Schedule - Constant,  !- Sunday Schedule:Day Name
    IS_Res_Always_off Day Schedule - Constant,  !- Monday Schedule:Day Name
    IS_Res_Always_off Day Schedule - Constant,  !- Tuesday Schedule:Day Name
    IS_Res_Always_off Day Schedule - Constant,  !- Wednesday Schedule:Day Name
    IS_Res_Always_off Day Schedule - Constant,  !- Thursday Schedule:Day Name
    IS_Res_Always_off Day Schedule - Constant,  !- Friday Schedule:Day Name
    IS_Res_Always_off Day Schedule - Constant,  !- Saturday Schedule:Day Name
    IS_Res_Always_off Day Schedule - Constant,  !- Holiday Schedule:Day Name
    IS_Res_Always_off Day Schedule - Constant,  !- SummerDesignDay Schedule:Day Name
    IS_Res_Always_off Day Schedule - Constant,  !- WinterDesignDay Schedule:Day Name
    IS_Res_Always_off Day Schedule - Constant,  !- CustomDay1 Schedule:Day Name
    IS_Res_Always_off Day Schedule - Constant;  !- CustomDay2 Schedule:Day Name

Schedule:Week:Daily,
    IS_RES_Equipment Week Schedule,  !- Name
    IS_RES_Equipment Day Schedule - Sun,  !- Sunday Schedule:Day Name
    IS_RES_Equipment Day Schedule - Sun,  !- Monday Schedule:Day Name
    IS_RES_Equipment Day Schedule - Sun,  !- Tuesday Schedule:Day Name
    IS_RES_Equipment Day Schedule - Sun,  !- Wednesday Schedule:Day Name
    IS_RES_Equipment Day Schedule - Sun,  !- Thursday Schedule:Day Name
    IS_RES_Equipment Day Schedule - Sun,  !- Friday Schedule:Day Name
    IS_RES_Equipment Day Schedule - Sun,  !- Saturday Schedule:Day Name
    IS_RES_Equipment Day Schedule - Sun,  !- Holiday Schedule:Day Name
    IS_RES_Equipment Day Schedule - Sun,  !- SummerDesignDay Schedule:Day Name
    IS_RES_Equipment Day Schedule - Sun,  !- WinterDesignDay Schedule:Day Name
    IS_RES_Equipment Day Schedule - Sun,  !- CustomDay1 Schedule:Day Name
    IS_RES_Equipment Day Schedule - Sun;  !- CustomDay2 Schedule:Day Name

Schedule:Week:Daily,
    IS_Res_Infiltration Week Schedule,  !- Name
    IS_Res_Infiltration Day Schedule - Constant,  !- Sunday Schedule:Day Name
    IS_Res_Infiltration Day Schedule - Constant,  !- Monday Schedule:Day Name
    IS_Res_Infiltration Day Schedule - Constant,  !- Tuesday Schedule:Day Name
    IS_Res_Infiltration Day Schedule - Constant,  !- Wednesday Schedule:Day Name
    IS_Res_Infiltration Day Schedule - Constant,  !- Thursday Schedule:Day Name
    IS_Res_Infiltration Day Schedule - Constant,  !- Friday Schedule:Day Name
    IS_Res_Infiltration Day Schedule - Constant,  !- Saturday Schedule:Day Name
    IS_Res_Infiltration Day Schedule - Constant,  !- Holiday Schedule:Day Name
    IS_Res_Infiltration Day Schedule - Constant,  !- SummerDesignDay Schedule:Day Name
    IS_Res_Infiltration Day Schedule - Constant,  !- WinterDesignDay Schedule:Day Name
    IS_Res_Infiltration Day Schedule - Constant,  !- CustomDay1 Schedule:Day Name
    IS_Res_Infiltration Day Schedule - Constant;  !- CustomDay2 Schedule:Day Name

Schedule:Week:Daily,
    IS_Res_Lights_NE_E Week Schedule,  !- Name
    IS_Res_Lights_NE_E Day Schedule - Sun,  !- Sunday Schedule:Day Name
    IS_Res_Lights_NE_E Day Schedule - Sun,  !- Monday Schedule:Day Name
    IS_Res_Lights_NE_E Day Schedule - Sun,  !- Tuesday Schedule:Day Name
    IS_Res_Lights_NE_E Day Schedule - Sun,  !- Wednesday Schedule:Day Name