!-Generator IDFEditor 1.51
!-Option SortedOrder

!-NOTE: All comments with '!-' are ignored by the IDFEditor and are generated automatically.
!-      Use '!' comments if they need to be retained when using the IDFEditor.


!-   ===========  ALL OBJECTS IN CLASS: MATERIAL ===========

!Name
!Roughness
!Thickness {m}
!Conductivity {W/m-K}
!Density {kg/m3}
!Specific Heat {J/kg-K}
!Thermal Absorptance
!Solar Absorptance
!Visible Absorptance
Material,
    IS_FOAM_GLASS-4CM,       !- Name
    Rough,                   !- Roughness
    0.04,                    !- Thickness {m}
    0.041,                   !- Conductivity {W/m-K}
    115,                     !- Density {kg/m3}
    840,                     !- Specific Heat {J/kg-K}
    0.9,                     !- Thermal Absorptance
    0.7,                     !- Solar Absorptance
    0.7;                     !- Visible Absorptance

!Name
!Roughness
!Thickness {m}
!Conductivity {W/m-K}
!Density {kg/m3}
!Specific Heat {J/kg-K}
!Thermal Absorptance
!Solar Absorptance
!Visible Absorptance
Material,
    IS_YTONG-22CM,           !- Name
    Rough,                   !- Roughness
    0.22,                    !- Thickness {m}
    0.11,                    !- Conductivity {W/m-K}
    400,                     !- Density {kg/m3}
    970,                     !- Specific Heat {J/kg-K}
    0.9,                     !- Thermal Absorptance
    0.7,                     !- Solar Absorptance
    0.7;                     !- Visible Absorptance

!Name
!Roughness
!Thickness {m}
!Conductivity {W/m-K}
!Density {kg/m3}
!Specific Heat {J/kg-K}
!Thermal Absorptance
!Solar Absorptance
!Visible Absorptance
Material,
    IS_YTONG-23CM,           !- Name
    Rough,                   !- Roughness
    0.23,                    !- Thickness {m}
    0.11,                    !- Conductivity {W/m-K}
    400,                     !- Density {kg/m3}
    970,                     !- Specific Heat {J/kg-K}
    0.9,                     !- Thermal Absorptance
    0.7,                     !- Solar Absorptance
    0.7;                     !- Visible Absorptance

!Name
!Roughness
!Thickness {m}
!Conductivity {W/m-K}
!Density {kg/m3}
!Specific Heat {J/kg-K}
!Thermal Absorptance
!Solar Absorptance
!Visible Absorptance
Material,
    IS_YTONG-25CM,           !- Name
    Rough,                   !- Roughness
    0.25,                    !- Thickness {m}
    0.11,                    !- Conductivity {W/m-K}
    400,                     !- Density {kg/m3}
    970,                     !- Specific Heat {J/kg-K}
    0.9,                     !- Thermal Absorptance
    0.7,                     !- Solar Absorptance
    0.7;                     !- Visible Absorptance

Material,
    IS_Cement Mortar,        !- Name
    MediumRough,             !- Roughness
    0.025,                   !- Thickness {m}
    1.4,                     !- Conductivity {W/m-K}
    2000,                    !- Density {kg/m3}
    900,                     !- Specific Heat {J/kg-K}
    ,                        !- Thermal Absorptance
    0.4,                     !- Solar Absorptance
    0.4;                     !- Visible Absorptance

Material,
    IS_Cement Mortar_4cm,    !- Name
    MediumRough,             !- Roughness
    0.04,                    !- Thickness {m}
    1.4,                     !- Conductivity {W/m-K}
    2000,                    !- Density {kg/m3}
    900,                     !- Specific Heat {J/kg-K}
    ,                        !- Thermal Absorptance
    0.4,                     !- Solar Absorptance
    0.4;                     !- Visible Absorptance

Material,
    IS_Limestone_4cm,        !- Name
    MediumRough,             !- Roughness
    0.04,                    !- Thickness {m}
    2.3,                     !- Conductivity {W/m-K}
    2600,                    !- Density {kg/m3}
    860,                     !- Specific Heat {J/kg-K}
    ,                        !- Thermal Absorptance
    0.7,                     !- Solar Absorptance
    0.7;                     !- Visible Absorptance

Material,
    IS_Rigid-Polystyrene-Foam-made-from-granular-material-1cm,  !- Name
    MediumRough,             !- Roughness
    0.01,                    !- Thickness {m}
    0.04,                    !- Conductivity {W/m-K}
    20,                      !- Density {kg/m3}
    1300,                    !- Specific Heat {J/kg-K}
    ,                        !- Thermal Absorptance
    0.44,                    !- Solar Absorptance
    0.44;                    !- Visible Absorptance

Material,
    IS_Rigid-Polystyrene-Foam-made-from-granular-material-1.5cm,  !- Name
    MediumRough,             !- Roughness
    0.015,                   !- Thickness {m}
    0.04,                    !- Conductivity {W/m-K}
    20,                      !- Density {kg/m3}
    1300,                    !- Specific Heat {J/kg-K}
    ,                        !- Thermal Absorptance
    0.4,                     !- Solar Absorptance
    0.4;                     !- Visible Absorptance

Material,
    IS_Rigid-Polystyrene-Foam-made-from-granular-material-2cm,  !- Name
    MediumRough,             !- Roughness
    0.02,                    !- Thickness {m}
    0.04,                    !- Conductivity {W/m-K}
    20,                      !- Density {kg/m3}
    1300,                    !- Specific Heat {J/kg-K}
    ,                        !- Thermal Absorptance
    0.44,                    !- Solar Absorptance
    0.44;                    !- Visible Absorptance

Material,
    IS_Rigid-Polystyrene-Foam-made-from-granular-material-2.5cm,  !- Name
    MediumRough,             !- Roughness
    0.025,                   !- Thickness {m}
    0.04,                    !- Conductivity {W/m-K}
    20,                      !- Density {kg/m3}
    1300,                    !- Specific Heat {J/kg-K}
    ,                        !- Thermal Absorptance
    0.44,                    !- Solar Absorptance
    0.44;                    !- Visible Absorptance

Material,
    IS_Rigid-Polystyrene-Foam-made-from-granular-material-3cm,  !- Name
    MediumRough,             !- Roughness
    0.03,                    !- Thickness {m}
    0.04,                    !- Conductivity {W/m-K}
    20,                      !- Density {kg/m3}
    1300,                    !- Specific Heat {J/kg-K}
    ,                        !- Thermal Absorptance
    0.44,                    !- Solar Absorptance
    0.44;                    !- Visible Absorptance

Material,
    IS_Rigid-Polystyrene-Foam-made-from-granular-material-5cm,  !- Name
    MediumRough,             !- Roughness
    0.05,                    !- Thickness {m}
    0.04,                    !- Conductivity {W/m-K}
    20,                      !- Density {kg/m3}
    1300,                    !- Specific Heat {J/kg-K}
    ,                        !- Thermal Absorptance
    0.44,                    !- Solar Absorptance
    0.44;                    !- Visible Absorptance

Material,
    IS_Rigid-Polystyrene-Foam-made-from-granular-material-6.5cm,  !- Name
    MediumRough,             !- Roughness
    0.065,                   !- Thickness {m}
    0.04,                    !- Conductivity {W/m-K}
    20,                      !- Density {kg/m3}
    1300,                    !- Specific Heat {J/kg-K}
    ,                        !- Thermal Absorptance
    0.44,                    !- Solar Absorptance
    0.44;                    !- Visible Absorptance

Material,
    IS_Rock-Wool-and-Glass-Wools-5cm,  !- Name
    MediumRough,             !- Roughness
    0.05,                    !- Thickness {m}
    0.048,                   !- Conductivity {W/m-K}
    10,                      !- Density {kg/m3}
    860,                     !- Specific Heat {J/kg-K}
    ,                        !- Thermal Absorptance
    0.44,                    !- Solar Absorptance
    0.44;                    !- Visible Absorptance

Material,
    IS_Lime-Cement Mortar,   !- Name
    MediumRough,             !- Roughness
    0.02,                    !- Thickness {m}
    0.87,                    !- Conductivity {W/m-K}
    1800,                    !- Density {kg/m3}
    860,                     !- Specific Heat {J/kg-K}
    ,                        !- Thermal Absorptance
    0.4,                     !- Solar Absorptance
    0.4;                     !- Visible Absorptance

Material,
    IS_CB1-13-23x50x25-095,  !- Name
    MediumRough,             !- Roughness
    0.23,                    !- Thickness {m}
    0.25,                    !- Conductivity {W/m-K}
    825,                     !- Density {kg/m3}
    970,                     !- Specific Heat {J/kg-K}
    ,                        !- Thermal Absorptance
    0.44,                    !- Solar Absorptance
    0.44;                    !- Visible Absorptance

Material,
    IS_CB13-8-22x40x20-065,  !- Name
    MediumRough,             !- Roughness
    0.22,                    !- Thickness {m}
    0.35,                    !- Conductivity {W/m-K}
    994,                     !- Density {kg/m3}
    970,                     !- Specific Heat {J/kg-K}
    ,                        !- Thermal Absorptance
    0.44,                    !- Solar Absorptance
    0.44;                    !- Visible Absorptance

Material,
    IS_CB26-8-20x60x25-090,  !- Name
    MediumRough,             !- Roughness
    0.2,                     !- Thickness {m}
    0.23,                    !- Conductivity {W/m-K}
    675,                     !- Density {kg/m3}
    970,                     !- Specific Heat {J/kg-K}
    ,                        !- Thermal Absorptance
    0.44,                    !- Solar Absorptance
    0.44;                    !- Visible Absorptance

Material,
    IS_CB28-5-20x40x20-060,  !- Name
    MediumRough,             !- Roughness
    0.2,                     !- Thickness {m}
    0.34,                    !- Conductivity {W/m-K}
    900,                     !- Density {kg/m3}
    970,                     !- Specific Heat {J/kg-K}
    ,                        !- Thermal Absorptance
    0.44,                    !- Solar Absorptance
    0.44;                    !- Visible Absorptance

Material,
    IS_CB30-5-20x40x20-040,  !- Name
    MediumRough,             !- Roughness
    0.20,                    !- Thickness {m}
    0.53,                    !- Conductivity {W/m-K}
    1400,                    !- Density {kg/m3}
    970,                     !- Specific Heat {J/kg-K}
    ,                        !- Thermal Absorptance
    0.44,                    !- Solar Absorptance
    0.44;                    !- Visible Absorptance

Material,
    IS_CB34-10-20x40x20-055, !- Name
    MediumRough,             !- Roughness
    0.2,                     !- Thickness {m}
    0.38,                    !- Conductivity {W/m-K}
    1287,                    !- Density {kg/m3}
    970,                     !- Specific Heat {J/kg-K}
    ,                        !- Thermal Absorptance
    0.44,                    !- Solar Absorptance
    0.44;                    !- Visible Absorptance

Material,
    IS_CB38-4-20x40x20-030-1-13-2,  !- Name
    MediumRough,             !- Roughness
    0.2,                     !- Thickness {m}
    0.71,                    !- Conductivity {W/m-K}
    1188,                    !- Density {kg/m3}
    970,                     !- Specific Heat {J/kg-K}
    ,                        !- Thermal Absorptance
    0.44,                    !- Solar Absorptance
    0.44;                    !- Visible Absorptance

Material,
    IS_CB42-4-10x50x20-020,  !- Name
    MediumRough,             !- Roughness
    0.1,                     !- Thickness {m}
    0.55,                    !- Conductivity {W/m-K}
    893,                     !- Density {kg/m3}
    970,                     !- Specific Heat {J/kg-K}
    ,                        !- Thermal Absorptance
    0.44,                    !- Solar Absorptance
    0.44;                    !- Visible Absorptance

Material,
    IS_CB44-3-10x40x20-020,  !- Name
    MediumRough,             !- Roughness
    0.1,                     !- Thickness {m}
    0.55,                    !- Conductivity {W/m-K}
    1288,                    !- Density {kg/m3}
    970,                     !- Specific Heat {J/kg-K}
    ,                        !- Thermal Absorptance
    0.44,                    !- Solar Absorptance
    0.44;                    !- Visible Absorptance

Material,
    IS_Carton-Gypsum-Boards, !- Name
    MediumRough,             !- Roughness
    0.012,                   !- Thickness {m}
    0.21,                    !- Conductivity {W/m-K}
    900,                     !- Density {kg/m3}
    1080,                    !- Specific Heat {J/kg-K}
    ,                        !- Thermal Absorptance
    0.44,                    !- Solar Absorptance
    0.44;                    !- Visible Absorptance

Material,
    IS_Sand,                 !- Name
    MediumRough,             !- Roughness
    0.1,                     !- Thickness {m}
    1.4,                     !- Conductivity {W/m-K}
    1600,                    !- Density {kg/m3}
    830,                     !- Specific Heat {J/kg-K}
    ,                        !- Thermal Absorptance
    0.44,                    !- Solar Absorptance
    0.44;                    !- Visible Absorptance

Material,
    IS_Ceramic,              !- Name
    MediumRough,             !- Roughness
    0.015,                   !- Thickness {m}
    1,                       !- Conductivity {W/m-K}
    2000,                    !- Density {kg/m3}
    970,                     !- Specific Heat {J/kg-K}
    ,                        !- Thermal Absorptance
    0.44,                    !- Solar Absorptance
    0.44;                    !- Visible Absorptance

Material,
    IS_Bitumen,              !- Name
    MediumRough,             !- Roughness
    0.005,                   !- Thickness {m}
    0.17,                    !- Conductivity {W/m-K}
    1100,                    !- Density {kg/m3}
    1660,                    !- Specific Heat {J/kg-K}
    ,                        !- Thermal Absorptance
    0.45,                    !- Solar Absorptance
    0.45;                    !- Visible Absorptance

Material,
    IS_Light Concrete w/light Coarse Aggregate w/Non Quartz Sand-1600,  !- Name
    MediumRough,             !- Roughness
    0.05,                    !- Thickness {m}
    1,                       !- Conductivity {W/m-K}
    1600,                    !- Density {kg/m3}
    970,                     !- Specific Heat {J/kg-K}
    ,                        !- Thermal Absorptance
    0.44,                    !- Solar Absorptance
    0.44;                    !- Visible Absorptance

Material,
    IS_Concrete w/Light aggregate w/o fine aggregate-1600,  !- Name
    MediumRough,             !- Roughness
    0.2,                     !- Thickness {m}
    0.75,                    !- Conductivity {W/m-K}
    1600,                    !- Density {kg/m3}
    970,                     !- Specific Heat {J/kg-K}
    ,                        !- Thermal Absorptance
    0.44,                    !- Solar Absorptance
    0.44;                    !- Visible Absorptance

Material,
    IS_Regular Concrete w/regular aggregate and w/Quartz sand_14cm,  !- Name
    MediumRough,             !- Roughness
    0.14,                    !- Thickness {m}
    2.1,                     !- Conductivity {W/m-K}
    2400,                    !- Density {kg/m3}
    970,                     !- Specific Heat {J/kg-K}
    ,                        !- Thermal Absorptance
    0.44,                    !- Solar Absorptance
    0.44;                    !- Visible Absorptance

Material,
    IS_Regular Concrete w/regular aggregate and w/Quartz sand_20cm,  !- Name
    MediumRough,             !- Roughness
    0.2,                     !- Thickness {m}
    2.1,                     !- Conductivity {W/m-K}
    2400,                    !- Density {kg/m3}
    970,                     !- Specific Heat {J/kg-K}
    ,                        !- Thermal Absorptance
    0.44,                    !- Solar Absorptance
    0.44;                    !- Visible Absorptance

Material,
    IS_Rigid-Polystyrene-Foam-made-from-granular-material-0.06cm,  !- Name
    MediumRough,             !- Roughness
    0.055,                   !- Thickness {m}
    0.04,                    !- Conductivity {W/m-K}
    20,                      !- Density {kg/m3}
    1300,                    !- Specific Heat {J/kg-K}
    ,                        !- Thermal Absorptance
    0.4,                     !- Solar Absorptance
    0.4;                     !- Visible Absorptance

Material,
    IS_Marble,               !- Name
    MediumRough,             !- Roughness
    0.04,                    !- Thickness {m}
    3.5,                     !- Conductivity {W/m-K}
    2800,                    !- Density {kg/m3}
    900,                     !- Specific Heat {J/kg-K}
    ,                        !- Thermal Absorptance
    0.76,                    !- Solar Absorptance
    0.76;                    !- Visible Absorptance

Material,
    IS_Rigid-Polystyrene-Foam-made-from-granular-material-4cm,  !- Name
    MediumRough,             !- Roughness
    0.04,                    !- Thickness {m}
    0.04,                    !- Conductivity {W/m-K}
    20,                      !- Density {kg/m3}
    1300,                    !- Specific Heat {J/kg-K}
    ,                        !- Thermal Absorptance
    0.44,                    !- Solar Absorptance
    0.44;                    !- Visible Absorptance

Material,
    IS_Rigid-Polystyrene-Foam-made-from-granular-material-4.5cm,  !- Name
    MediumRough,             !- Roughness
    0.045,                   !- Thickness {m}
    0.04,                    !- Conductivity {W/m-K}
    20,                      !- Density {kg/m3}
    1300,                    !- Specific Heat {J/kg-K}
    ,                        !- Thermal Absorptance
    0.44,                    !- Solar Absorptance
    0.44;                    !- Visible Absorptance

Material,
    IS_Rigid-Polystyrene-Foam-made-from-granular-material-6cm,  !- Name
    MediumRough,             !- Roughness
    0.06,                    !- Thickness {m}
    0.04,                    !- Conductivity {W/m-K}
    20,                      !- Density {kg/m3}
    1300,                    !- Specific Heat {J/kg-K}
    ,                        !- Thermal Absorptance
    0.44,                    !- Solar Absorptance
    0.44;                    !- Visible Absorptance

Material,
    IS_Rigid-Polystyrene-Foam-made-from-granular-material-7cm,  !- Name
    MediumRough,             !- Roughness
    0.07,                    !- Thickness {m}
    0.04,                    !- Conductivity {W/m-K}
    20,                      !- Density {kg/m3}
    1300,                    !- Specific Heat {J/kg-K}
    ,                        !- Thermal Absorptance
    0.44,                    !- Solar Absorptance
    0.44;                    !- Visible Absorptance

Material,
    IS_Regular Concrete w/regular aggregate and w/Quartz sand_15cm,  !- Name
    MediumRough,             !- Roughness
    0.15,                    !- Thickness {m}
    2.1,                     !- Conductivity {W/m-K}
    2400,                    !- Density {kg/m3}
    970,                     !- Specific Heat {J/kg-K}
    ,                        !- Thermal Absorptance
    0.44,                    !- Solar Absorptance
    0.44;                    !- Visible Absorptance

Material,
    ISR_Prefab_Regular Concrete w/regular aggregate and w/Quartz sand,  !- Name
    MediumRough,             !- Roughness
    0.13,                    !- Thickness {m}
    2.1,                     !- Conductivity {W/m-K}
    2400,                    !- Density {kg/m3}
    970,                     !- Specific Heat {J/kg-K}
    ,                        !- Thermal Absorptance
    0.45,                    !- Solar Absorptance
    0.45;                    !- Visible Absorptance

Material,
    ISR_Rigid Polystyrene Foam made from granular material_2cm,  !- Name
    MediumRough,             !- Roughness
    0.02,                    !- Thickness {m}
    0.04,                    !- Conductivity {W/m-K}
    20,                      !- Density {kg/m3}
    1300,                    !- Specific Heat {J/kg-K}
    ,                        !- Thermal Absorptance
    0.44,                    !- Solar Absorptance
    0.44;                    !- Visible Absorptance

Material,
    ISR_Lime-Cement Mortar,  !- Name
    MediumRough,             !- Roughness
    0.015,                   !- Thickness {m}
    0.87,                    !- Conductivity {W/m-K}
    1800,                    !- Density {kg/m3}
    860,                     !- Specific Heat {J/kg-K}
    ,                        !- Thermal Absorptance
    0.3,                     !- Solar Absorptance
    0.3;                     !- Visible Absorptance

Material,
    ISR_Regular Concrete w/regular aggregate and w/Quartz sand,  !- Name
    MediumRough,             !- Roughness
    0.15,                    !- Thickness {m}
    2.1,                     !- Conductivity {W/m-K}
    2400,                    !- Density {kg/m3}
    970,                     !- Specific Heat {J/kg-K}
    ,                        !- Thermal Absorptance
    0.44,                    !- Solar Absorptance
    0.44;                    !- Visible Absorptance

Material,
    ISR_Bitumen-ROOF,        !- Name
    MediumRough,             !- Roughness
    0.005,                   !- Thickness {m}
    0.17,                    !- Conductivity {W/m-K}
    1100,                    !- Density {kg/m3}
    1660,                    !- Specific Heat {J/kg-K}
    ,                        !- Thermal Absorptance
    0.3,                     !- Solar Absorptance
    0.3;                     !- Visible Absorptance

Material,
    ISR_Light Concrete w/light Coarse Aggregate w/Non Quartz Sand-1600,  !- Name
    MediumRough,             !- Roughness
    0.1,                     !- Thickness {m}
    1,                       !- Conductivity {W/m-K}
    1600,                    !- Density {kg/m3}
    970,                     !- Specific Heat {J/kg-K}
    ,                        !- Thermal Absorptance
    0.44,                    !- Solar Absorptance
    0.44;                    !- Visible Absorptance

Material,
    ISR_Regular Concrete w/regular aggregate and w/Quartz sand_2cm,  !- Name
    MediumRough,             !- Roughness
    0.2,                     !- Thickness {m}
    2.1,                     !- Conductivity {W/m-K}
    2400,                    !- Density {kg/m3}
    970,                     !- Specific Heat {J/kg-K}
    ,                        !- Thermal Absorptance
    0.44,                    !- Solar Absorptance
    0.44;                    !- Visible Absorptance

Material,
    ISR_Light Concrete w/light Coarse Aggregate w/Non Quartz Sand-1600,  !- Name
    MediumRough,             !- Roughness
    0.2,                     !- Thickness {m}
    1,                       !- Conductivity {W/m-K}
    1600,                    !- Density {kg/m3}
    970,                     !- Specific Heat {J/kg-K}
    ,                        !- Thermal Absorptance
    0,                       !- Solar Absorptance
    0;                       !- Visible Absorptance

Material,
    ISR_Sand,                !- Name
    MediumRough,             !- Roughness
    0.06,                    !- Thickness {m}
    1.4,                     !- Conductivity {W/m-K}
    1600,                    !- Density {kg/m3}
    830,                     !- Specific Heat {J/kg-K}
    ,                        !- Thermal Absorptance
    0.44,                    !- Solar Absorptance
    0.44;                    !- Visible Absorptance

Material,
    ISR_Terrazzo,            !- Name
    MediumRough,             !- Roughness
    0.03,                    !- Thickness {m}
    1,                       !- Conductivity {W/m-K}
    2000,                    !- Density {kg/m3}
    970,                     !- Specific Heat {J/kg-K}
    ,                        !- Thermal Absorptance
    0.44,                    !- Solar Absorptance
    0.44;                    !- Visible Absorptance

Material,
    HaTamar Sand [490]-FLOOR-3-1,  !- Name
    MediumRough,             !- Roughness
    0.06,                    !- Thickness {m}
    1.4,                     !- Conductivity {W/m-K}
    1600,                    !- Density {kg/m3}
    830,                     !- Specific Heat {J/kg-K}
    ,                        !- Thermal Absorptance
    0.44,                    !- Solar Absorptance
    0.44;                    !- Visible Absorptance

Material,
    HaTamar Lime-Cement Mortar [1378]-FLOOR-3-2,  !- Name
    MediumRough,             !- Roughness
    0.01,                    !- Thickness {m}
    0.87,                    !- Conductivity {W/m-K}
    1800,                    !- Density {kg/m3}
    860,                     !- Specific Heat {J/kg-K}
    ,                        !- Thermal Absorptance
    0.44,                    !- Solar Absorptance
    0.44;                    !- Visible Absorptance

Material,
    Stone,                   !- Name
    MediumRough,             !- Roughness
    0.04,                    !- Thickness {m}
    2.3,                     !- Conductivity {W/m-K}
    2600,                    !- Density {kg/m3}
    860,                     !- Specific Heat {J/kg-K}
    0.9,                     !- Thermal Absorptance
    0.7,                     !- Solar Absorptance
    0.7;                     !- Visible Absorptance


!-   ===========  ALL OBJECTS IN CLASS: MATERIAL:AIRGAP ===========

Material:AirGap,
    IS_AirGap25mm,           !- Name
    0.18;                    !- Thermal Resistance {m2-K/W}


!-   ===========  ALL OBJECTS IN CLASS: WINDOWMATERIAL:SIMPLEGLAZINGSYSTEM ===========

WindowMaterial:SimpleGlazingSystem,
    ISw_SgCl_Wood_140x95_4.97_.67_.65,  !- Name
    4.97,                    !- U-Factor {W/m2-K}
    0.67,                    !- Solar Heat Gain Coefficient
    0.65;                    !- Visible Transmittance

WindowMaterial:SimpleGlazingSystem,
    ISw_SgCl_Alumin_140x95_5.84_.7_.68,  !- Name
    5.84,                    !- U-Factor {W/m2-K}
    0.7,                     !- Solar Heat Gain Coefficient
    0.68;                    !- Visible Transmittance

WindowMaterial:SimpleGlazingSystem,
    ISw_DgCl_Wood_140x95_3.12_.59_.59,  !- Name
    3.12,                    !- U-Factor {W/m2-K}
    0.59,                    !- Solar Heat Gain Coefficient
    0.59;                    !- Visible Transmittance

WindowMaterial:SimpleGlazingSystem,
    ISw_DgCl_Alumin_140x95_3.95_.65_.63,  !- Name
    3.95,                    !- U-Factor {W/m2-K}
    0.65,                    !- Solar Heat Gain Coefficient
    0.63;                    !- Visible Transmittance

WindowMaterial:SimpleGlazingSystem,
    ISw_LoECl_Alumin_140x95_3.14_.52_.6,  !- Name
    3.14,                    !- U-Factor {W/m2-K}
    0.52,                    !- Solar Heat Gain Coefficient
    0.6;                     !- Visible Transmittance

WindowMaterial:SimpleGlazingSystem,
    ISw_LoEDark_Alumin_140x95_3.33_.27_.36,  !- Name
    3.33,                    !- U-Factor {W/m2-K}
    0.27,                    !- Solar Heat Gain Coefficient
    0.36;                    !- Visible Transmittance

WindowMaterial:SimpleGlazingSystem,
    ISw_SgCl_Wood_110x95_4.84_.64_.62,  !- Name
    4.84,                    !- U-Factor {W/m2-K}
    0.64,                    !- Solar Heat Gain Coefficient
    0.62;                    !- Visible Transmittance

WindowMaterial:SimpleGlazingSystem,
    ISw_SgCl_Alumin_110x95_5.84_.68_.66,  !- Name
    5.84,                    !- U-Factor {W/m2-K}
    0.68,                    !- Solar Heat Gain Coefficient
    0.66;                    !- Visible Transmittance

WindowMaterial:SimpleGlazingSystem,
    ISw_DgCl_Wood_110x95_3.10_.56_.56,  !- Name
    3.1,                     !- U-Factor {W/m2-K}
    0.56,                    !- Solar Heat Gain Coefficient
    0.56;                    !- Visible Transmittance

WindowMaterial:SimpleGlazingSystem,
    ISw_DgCl_Alumin_110x95_4.04_.63_.60,  !- Name
    4.04,                    !- U-Factor {W/m2-K}
    0.63,                    !- Solar Heat Gain Coefficient
    0.6;                     !- Visible Transmittance

WindowMaterial:SimpleGlazingSystem,
    ISw_LoECl_Alumin_110x95_3.27_.51_.58,  !- Name
    3.27,                    !- U-Factor {W/m2-K}
    0.51,                    !- Solar Heat Gain Coefficient
    0.58;                    !- Visible Transmittance

WindowMaterial:SimpleGlazingSystem,
    ISw_LoEDark_Alumin_110x95_3.45_.26_.34,  !- Name
    3.45,                    !- U-Factor {W/m2-K}
    0.26,                    !- Solar Heat Gain Coefficient
    0.34;                    !- Visible Transmittance

WindowMaterial:SimpleGlazingSystem,
    ISw_LoECl_PVC_140x95_2.03_.46_.56,  !- Name
    2.03,                    !- U-Factor {W/m2-K}
    0.46,                    !- Solar Heat Gain Coefficient
    0.56;                    !- Visible Transmittance

WindowMaterial:SimpleGlazingSystem,
    ISw_LoECl_PVC_110x95_2.05_.44_.54,  !- Name
    2.05,                    !- U-Factor {W/m2-K}
    0.44,                    !- Solar Heat Gain Coefficient
    0.54;                    !- Visible Transmittance

WindowMaterial:SimpleGlazingSystem,
    ISw_Glazing doublePane_Clear_2.71_.72_.80,  !- Name
    2.71,                    !- U-Factor {W/m2-K}
    0.72,                    !- Solar Heat Gain Coefficient
    0.80;                    !- Visible Transmittance


!-   ===========  ALL OBJECTS IN CLASS: WINDOWMATERIAL:GLAZING ===========

!Honeybee custom EnergyPlus library
WindowMaterial:Glazing,
    CLEAR 2.5MM,             !- Name
    SpectralAverage,         !- Optical Data Type
    ,                        !- Window Glass Spectral Data Set Name
    0.0025,                  !- Thickness {m}
    0.850,                   !- Solar Transmittance at Normal Incidence
    0.075,                   !- Front Side Solar Reflectance at Normal Incidence